Cenarios04/saida/vppbase_VLN.Txt

SYMMETRICAL COMPONENT VOLTAGES BY BUS (for 3-phase buses)

Bus   Mag:   V1 (kV)    p.u.     V2 (kV)   %V2/V1    V0 (kV)    %V0/V1

a       0.2194          1  1.072E-010  4.887E-008 1.427E-011 6.505E-009
a1      0.2194          1  1.072E-010  4.887E-008 1.427E-011 6.505E-009
a2      0.2194          1  1.072E-010  4.887E-008 1.427E-011 6.505E-009
a3      0.2194          1  1.072E-010  4.887E-008 1.427E-011 6.505E-009
a4      0.2194          1  1.072E-010  4.887E-008 1.427E-011 6.505E-009
e            0          0          0          0         0         0
e1           0          0          0          0         0         0
e2           0          0          0          0         0         0
e3           0          0          0          0         0         0
e4           0          0          0          0         0         0
a1-1    0.2194          1  1.072E-010  4.887E-008 1.427E-011 6.505E-009
a1-2    0.2194          1  1.072E-010  4.887E-008 1.427E-011 6.505E-009
a1-3    0.2194          1  1.072E-010  4.887E-008 1.427E-011 6.505E-009
a1-4    0.2194          1  1.072E-010  4.887E-008 1.427E-011 6.505E-009
a1-5    0.2194          1  1.072E-010  4.887E-008 1.427E-011 6.505E-009
a2-1    0.2194          1  1.072E-010  4.887E-008 1.427E-011 6.505E-009
a2-2    0.2194          1  1.072E-010  4.887E-008 1.427E-011 6.505E-009
a2-3    0.2194          1  1.072E-010  4.887E-008 1.427E-011 6.505E-009
a2-4    0.2194          1  1.072E-010  4.887E-008 1.427E-011 6.505E-009
a2-5    0.2194          1  1.072E-010  4.887E-008 1.427E-011 6.505E-009
